three_terminal_test_test.inp
0.001  # dl: cell size for the TLM solution
-0.06 -0.02 -0.02   0.06 0.02 0.04  # TLM problem space dimensions: xmin,ymin,zmin,xmax,ymax,zmax     
1      # Number of gerber files to include
three_track.gbr
0.002    # z position for the layer specified in this gerber file
0      # Number of dielectric layers
0      # Number of vias
2      # Number of lumped components
1      # COMPONENT NUMBER
one_port_model  # Component type for component 1
1      # Number of ports
1      # Ngspice node number for port 1
-0.05  0.005 0.002  # connection point coordinates for connection number 1, port 1
-0.05 -0.005 0.002  # connection point coordinates for connection number 2, port 2
0.004     # z position for component
2      # COMPONENT NUMBER
one_port_model  # Component type for component 2
1      # Number of ports
2      # Ngspice node number for port 1
0.05  0.005 0.002  # connection point coordinates for connection number 1, port 1
0.05 -0.005 0.002  # connection point coordinates for connection number 2, port 2
0.004     # z position for component 
1        # Number of additional components (heatsinks etc)
heatsink
-0.05 -0.01 -0.015    0.05 0.01 -0.002  # outer dimensions of the heatsink
10                                      # number of slots
0.006                                   # width of slots 
0.01                                    # depth of slots
* START of GGI_TLM input file text *

ngspice_node_output_list
2   # number of ngspice output nodes
1   # NGSPICE OUTPUT NUMBER
1   # ngspice node number
2   # NGSPICE OUTPUT NUMBER
2   # ngspice node number

Simulation_time
1e-9

* END of GGI_TLM input file text *

* START of Ngspice input file text *

* Model to be included in the GGI_TLM simulation for port 1, connected to node 1
* in this case a voltage source with series resistance
Rs1     2001   1   100.0
Vs1     2001   0   EXP( 0.0     1.0    0.000000E+00    2.000000E-010    1.200000E-09    2.000000E-010 )
* 
* Model to be included in the GGI_TLM simulation for port 2, connected to node 2
* in this case a diode with series resistance
Diode2   2002   2   Dmod
Rl2      2002   0   100.0
.model DMOD D ( is=1e-12 )
*

* END of Ngspice input file text *


two_port_model  # Component type for component 1
2      # Number of ports
1      # Ngspice node number for port 1
2      # Ngspice node number for port 2
-0.05  0.005 0.002  # connection point coordinates for connection number 1, port 1
-0.05 -0.005 0.002  # connection point coordinates for connection number 2, port 2
-0.05  0.000 0.002  # connection point coordinates for connection number 3, reference for ports 1 and 2
0.004     # z position for component
2      # COMPONENT NUMBER
two_port_model  # Component type for component 2
2      # Number of ports
3      # Ngspice node number for port 1
4      # Ngspice node number for port 2
0.05  0.005 0.002  # connection point coordinates for connection number 1, port 1
0.05 -0.005 0.002  # connection point coordinates for connection number 2, port 2
0.05  0.000 0.002  # connection point coordinates for connection number 3, reference for ports 1 and 2
0.004     # z position for component 


